*SRC=2N3904;2N3904;BJTs NPN; Si;  60.0V  0.20A  300MHz   Central Semi Central Semi
.MODEL 2N3904  NPN (
+ IS=4.9148E-15
+ BF=191.70
+ VAF=100
+ IKF=.28579
+ ISE=11.882E-15
+ NE=1.4422
+ BR=5.6808
+ VAR=100
+ IKR=61.753E-3
+ ISC=71.145E-12
+ NC=1.6595
+ NK=.8296
+ RB=5.8072
+ RC=.70808
+ CJE=6.9435E-12
+ VJE=.61872
+ MJE=.27802
+ CJC=3.7572E-12
+ VJC=1.2237
+ MJC=.28886
+ TF=523.89E-12
+ XTF=83.066
+ VTF=67.769
+ ITF=1.8804
+ TR=10.000E-9 )
           
* This is the on semi spice3 model of the PNP transistor           
.MODEL 2N3906 PNP (
+IS=7.75521e-12 BF=194.093 NF=1.35509 VAF=156.436
+IKF=0.0660057 ISE=1.88546e-12 NE=1.81673 BR=3.41317
+NR=1.5 VAR=5.86061 IKR=1.70599 ISC=7.64281e-10
+NC=1.92376 RB=6.48961 IRB=0.1 RBM=0.1
+RE=0.0001 RC=2.45044 XTB=0.1 XTI=1
+EG=1.05 CJE=6.11928e-12 VJE=0.4 MJE=0.248812
+TF=5.21843e-10 XTF=0.932702 VTF=9.1046 ITF=0.0106472
+CJC=6.85007e-12 VJC=0.4 MJC=0.279018 XCJC=0.9
+FC=0.478887 CJS=0 VJS=0.75 MJS=0.5
+TR=4.30605e-07 PTF=0 KF=0 AF=1 )


* this model was taken from the ngspice tutorial page
.model BC546B npn ( IS=7.59E-15 VAF=73.4 BF=480 IKF=0.0962 NE=1.2665
+ ISE=3.278E-15 IKR=0.03 ISC=2.00E-13 NC=1.2 NR=1 BR=5 RC=0.25 CJC=6.33E-12
+ FC=0.5 MJC=0.33 VJC=0.65 CJE=1.25E-11 MJE=0.55 VJE=0.65 TF=4.26E-10
+ ITF=0.6 VTF=3 XTF=20 RB=100 IRB=0.0001 RBM=10 RE=0.5 TR=1.50E-07)
